Distrib/IEEETestCases/ShortCircuitCases/123Bus/ieee123_PropertyDump.Txt
NumBuses= 132
NumNodes= 278
NumDevices= 238
BusList:
  150          (3 Nodes) 1 2 3
  150r         (3 Nodes) 1 2 3
  149          (3 Nodes) 1 2 3
  1            (3 Nodes) 1 2 3
  2            (1 Nodes) 2
  3            (1 Nodes) 3
  7            (3 Nodes) 1 2 3
  4            (1 Nodes) 3
  5            (1 Nodes) 3
  6            (1 Nodes) 3
  8            (3 Nodes) 1 2 3
  12           (1 Nodes) 2
  9            (1 Nodes) 1
  13           (3 Nodes) 1 2 3
  9r           (1 Nodes) 1
  14           (1 Nodes) 1
  34           (1 Nodes) 3
  18           (3 Nodes) 1 2 3
  11           (1 Nodes) 1
  10           (1 Nodes) 1
  15           (1 Nodes) 3
  16           (1 Nodes) 3
  17           (1 Nodes) 3
  19           (1 Nodes) 1
  21           (3 Nodes) 1 2 3
  20           (1 Nodes) 1
  22           (1 Nodes) 2
  23           (3 Nodes) 1 2 3
  24           (1 Nodes) 3
  25           (3 Nodes) 1 2 3
  25r          (2 Nodes) 1 3
  26           (2 Nodes) 1 3
  28           (3 Nodes) 1 2 3
  27           (2 Nodes) 1 3
  31           (1 Nodes) 3
  33           (1 Nodes) 1
  29           (3 Nodes) 1 2 3
  30           (3 Nodes) 1 2 3
  250          (3 Nodes) 1 2 3
  32           (1 Nodes) 3
  35           (3 Nodes) 1 2 3
  36           (2 Nodes) 1 2
  40           (3 Nodes) 1 2 3
  37           (1 Nodes) 1
  38           (1 Nodes) 2
  39           (1 Nodes) 2
  41           (1 Nodes) 3
  42           (3 Nodes) 1 2 3
  43           (1 Nodes) 2
  44           (3 Nodes) 1 2 3
  45           (1 Nodes) 1
  47           (3 Nodes) 1 2 3
  46           (1 Nodes) 1
  48           (3 Nodes) 1 2 3
  49           (3 Nodes) 1 2 3
  50           (3 Nodes) 1 2 3
  51           (3 Nodes) 1 2 3
  151          (3 Nodes) 1 2 3
  52           (3 Nodes) 1 2 3
  53           (3 Nodes) 1 2 3
  54           (3 Nodes) 1 2 3
  55           (3 Nodes) 1 2 3
  57           (3 Nodes) 1 2 3
  56           (3 Nodes) 1 2 3
  58           (1 Nodes) 2
  60           (3 Nodes) 1 2 3
  59           (1 Nodes) 2
  61           (3 Nodes) 1 2 3
  62           (3 Nodes) 1 2 3
  63           (3 Nodes) 1 2 3
  64           (3 Nodes) 1 2 3
  65           (3 Nodes) 1 2 3
  66           (3 Nodes) 1 2 3
  67           (3 Nodes) 1 2 3
  68           (1 Nodes) 1
  72           (3 Nodes) 1 2 3
  97           (3 Nodes) 1 2 3
  69           (1 Nodes) 1
  70           (1 Nodes) 1
  71           (1 Nodes) 1
  73           (1 Nodes) 3
  76           (3 Nodes) 1 2 3
  74           (1 Nodes) 3
  75           (1 Nodes) 3
  77           (3 Nodes) 1 2 3
  86           (3 Nodes) 1 2 3
  78           (3 Nodes) 1 2 3
  79           (3 Nodes) 1 2 3
  80           (3 Nodes) 1 2 3
  81           (3 Nodes) 1 2 3
  82           (3 Nodes) 1 2 3
  84           (1 Nodes) 3
  83           (3 Nodes) 1 2 3
  85           (1 Nodes) 3
  87           (3 Nodes) 1 2 3
  88           (1 Nodes) 1
  89           (3 Nodes) 1 2 3
  90           (1 Nodes) 2
  91           (3 Nodes) 1 2 3
  92           (1 Nodes) 3
  93           (3 Nodes) 1 2 3
  94           (1 Nodes) 1
  95           (3 Nodes) 1 2 3
  96           (1 Nodes) 2
  98           (3 Nodes) 1 2 3
  99           (3 Nodes) 1 2 3
  100          (3 Nodes) 1 2 3
  450          (3 Nodes) 1 2 3
  101          (3 Nodes) 3 1 2
  102          (1 Nodes) 3
  105          (3 Nodes) 1 2 3
  103          (1 Nodes) 3
  104          (1 Nodes) 3
  106          (1 Nodes) 2
  108          (3 Nodes) 1 2 3
  107          (1 Nodes) 2
  109          (1 Nodes) 1
  300          (3 Nodes) 1 2 3
  110          (1 Nodes) 1
  111          (1 Nodes) 1
  112          (1 Nodes) 1
  113          (1 Nodes) 1
  114          (1 Nodes) 1
  135          (3 Nodes) 1 2 3
  152          (3 Nodes) 1 2 3
  160r         (3 Nodes) 1 2 3
  197          (3 Nodes) 1 2 3
  160          (3 Nodes) 1 2 3
  61s          (3 Nodes) 1 2 3
  300_open     (3 Nodes) 1 2 3
  94_open      (1 Nodes) 1
  610          (3 Nodes) 1 2 3
DeviceList:
  source      
  reg1a       
  creg1a      
  l115        
  l1          
  l2          
  l3          
  l4          
  l5          
  l6          
  l7          
  l8          
  l9          
  l10         
  l11         
  l12         
  l13         
  l14         
  l15         
  l16         
  l17         
  l18         
  l19         
  l20         
  l21         
  l22         
  l23         
  l24         
  l25         
  l26         
  l27         
  l28         
  l29         
  l30         
  l31         
  l32         
  l33         
  l34         
  l35         
  l36         
  l37         
  l38         
  l39         
  l40         
  l41         
  l42         
  l43         
  l44         
  l45         
  l46         
  l47         
  l48         
  l49         
  l50         
  l51         
  l52         
  l53         
  l54         
  l55         
  l56         
  l57         
  l58         
  l59         
  l60         
  l61         
  l62         
  l63         
  l64         
  l65         
  l66         
  l67         
  l68         
  l69         
  l70         
  l71         
  l72         
  l73         
  l74         
  l75         
  l76         
  l77         
  l78         
  l79         
  l80         
  l81         
  l82         
  l83         
  l84         
  l85         
  l86         
  l87         
  l88         
  l89         
  l90         
  l91         
  l92         
  l93         
  l94         
  l95         
  l96         
  l97         
  l98         
  l99         
  l100        
  l101        
  l102        
  l103        
  l104        
  l105        
  l106        
  l107        
  l108        
  l109        
  l110        
  l111        
  l112        
  l113        
  l114        
  l116        
  l117        
  l118        
  sw1         
  sw2         
  sw3         
  sw4         
  sw5         
  sw6         
  sw7         
  sw8         
  xfm1        
  c83         
  c88a        
  c90b        
  c92c        
  reg2a       
  reg3a       
  reg4a       
  reg3c       
  reg4b       
  reg4c       
  creg2a      
  creg3a      
  creg3c      
  creg4a      
  creg4b      
  creg4c      
  s1a         
  s2b         
  s4c         
  s5c         
  s6c         
  s7a         
  s9a         
  s10a        
  s11a        
  s12b        
  s16c        
  s17c        
  s19a        
  s20a        
  s22b        
  s24c        
  s28a        
  s29a        
  s30c        
  s31c        
  s32c        
  s33a        
  s34c        
  s35a        
  s37a        
  s38b        
  s39b        
  s41c        
  s42a        
  s43b        
  s45a        
  s46a        
  s47         
  s48         
  s49a        
  s49b        
  s49c        
  s50c        
  s51a        
  s52a        
  s53a        
  s55a        
  s56b        
  s58b        
  s59b        
  s60a        
  s62c        
  s63a        
  s64b        
  s65a        
  s65b        
  s65c        
  s66c        
  s68a        
  s69a        
  s70a        
  s71a        
  s73c        
  s74c        
  s75c        
  s76a        
  s76b        
  s76c        
  s77b        
  s79a        
  s80b        
  s82a        
  s83c        
  s84c        
  s85c        
  s86b        
  s87b        
  s88a        
  s90b        
  s92c        
  s94a        
  s95b        
  s96b        
  s98a        
  s99b        
  s100c       
  s102c       
  s103c       
  s104c       
  s106b       
  s107b       
  s109a       
  s111a       
  s112a       
  s113a       
  s114a       
  feeder      
NodeToBus Array:
   1  1 (=150.1)
   2  1 (=150.2)
   3  1 (=150.3)
   4  2 (=150r.1)
   5  2 (=150r.2)
   6  2 (=150r.3)
   7  3 (=149.1)
   8  3 (=149.2)
   9  3 (=149.3)
  10  4 (=1.1)
  11  4 (=1.2)
  12  4 (=1.3)
  13  5 (=2.2)
  14  6 (=3.3)
  15  7 (=7.1)
  16  7 (=7.2)
  17  7 (=7.3)
  18  8 (=4.3)
  19  9 (=5.3)
  20 10 (=6.3)
  21 11 (=8.1)
  22 11 (=8.2)
  23 11 (=8.3)
  24 12 (=12.2)
  25 13 (=9.1)
  26 14 (=13.1)
  27 14 (=13.2)
  28 14 (=13.3)
  29 15 (=9r.1)
  30 16 (=14.1)
  31 17 (=34.3)
  32 18 (=18.1)
  33 18 (=18.2)
  34 18 (=18.3)
  35 19 (=11.1)
  36 20 (=10.1)
  37 21 (=15.3)
  38 22 (=16.3)
  39 23 (=17.3)
  40 24 (=19.1)
  41 25 (=21.1)
  42 25 (=21.2)
  43 25 (=21.3)
  44 26 (=20.1)
  45 27 (=22.2)
  46 28 (=23.1)
  47 28 (=23.2)
  48 28 (=23.3)
  49 29 (=24.3)
  50 30 (=25.1)
  51 30 (=25.2)
  52 30 (=25.3)
  53 31 (=25r.1)
  54 31 (=25r.3)
  55 32 (=26.1)
  56 32 (=26.3)
  57 33 (=28.1)
  58 33 (=28.2)
  59 33 (=28.3)
  60 34 (=27.1)
  61 34 (=27.3)
  62 35 (=31.3)
  63 36 (=33.1)
  64 37 (=29.1)
  65 37 (=29.2)
  66 37 (=29.3)
  67 38 (=30.1)
  68 38 (=30.2)
  69 38 (=30.3)
  70 39 (=250.1)
  71 39 (=250.2)
  72 39 (=250.3)
  73 40 (=32.3)
  74 41 (=35.1)
  75 41 (=35.2)
  76 42 (=36.1)
  77 42 (=36.2)
  78 41 (=35.3)
  79 43 (=40.1)
  80 43 (=40.2)
  81 43 (=40.3)
  82 44 (=37.1)
  83 45 (=38.2)
  84 46 (=39.2)
  85 47 (=41.3)
  86 48 (=42.1)
  87 48 (=42.2)
  88 48 (=42.3)
  89 49 (=43.2)
  90 50 (=44.1)
  91 50 (=44.2)
  92 50 (=44.3)
  93 51 (=45.1)
  94 52 (=47.1)
  95 52 (=47.2)
  96 52 (=47.3)
  97 53 (=46.1)
  98 54 (=48.1)
  99 54 (=48.2)
  100 54 (=48.3)
  101 55 (=49.1)
  102 55 (=49.2)
  103 55 (=49.3)
  104 56 (=50.1)
  105 56 (=50.2)
  106 56 (=50.3)
  107 57 (=51.1)
  108 57 (=51.2)
  109 57 (=51.3)
  110 58 (=151.1)
  111 58 (=151.2)
  112 58 (=151.3)
  113 59 (=52.1)
  114 59 (=52.2)
  115 59 (=52.3)
  116 60 (=53.1)
  117 60 (=53.2)
  118 60 (=53.3)
  119 61 (=54.1)
  120 61 (=54.2)
  121 61 (=54.3)
  122 62 (=55.1)
  123 62 (=55.2)
  124 62 (=55.3)
  125 63 (=57.1)
  126 63 (=57.2)
  127 63 (=57.3)
  128 64 (=56.1)
  129 64 (=56.2)
  130 64 (=56.3)
  131 65 (=58.2)
  132 66 (=60.1)
  133 66 (=60.2)
  134 66 (=60.3)
  135 67 (=59.2)
  136 68 (=61.1)
  137 68 (=61.2)
  138 68 (=61.3)
  139 69 (=62.1)
  140 69 (=62.2)
  141 69 (=62.3)
  142 70 (=63.1)
  143 70 (=63.2)
  144 70 (=63.3)
  145 71 (=64.1)
  146 71 (=64.2)
  147 71 (=64.3)
  148 72 (=65.1)
  149 72 (=65.2)
  150 72 (=65.3)
  151 73 (=66.1)
  152 73 (=66.2)
  153 73 (=66.3)
  154 74 (=67.1)
  155 75 (=68.1)
  156 74 (=67.2)
  157 74 (=67.3)
  158 76 (=72.1)
  159 76 (=72.2)
  160 76 (=72.3)
  161 77 (=97.1)
  162 77 (=97.2)
  163 77 (=97.3)
  164 78 (=69.1)
  165 79 (=70.1)
  166 80 (=71.1)
  167 81 (=73.3)
  168 82 (=76.1)
  169 82 (=76.2)
  170 82 (=76.3)
  171 83 (=74.3)
  172 84 (=75.3)
  173 85 (=77.1)
  174 85 (=77.2)
  175 85 (=77.3)
  176 86 (=86.1)
  177 86 (=86.2)
  178 86 (=86.3)
  179 87 (=78.1)
  180 87 (=78.2)
  181 87 (=78.3)
  182 88 (=79.1)
  183 88 (=79.2)
  184 88 (=79.3)
  185 89 (=80.1)
  186 89 (=80.2)
  187 89 (=80.3)
  188 90 (=81.1)
  189 90 (=81.2)
  190 90 (=81.3)
  191 91 (=82.1)
  192 91 (=82.2)
  193 91 (=82.3)
  194 92 (=84.3)
  195 93 (=83.1)
  196 93 (=83.2)
  197 93 (=83.3)
  198 94 (=85.3)
  199 95 (=87.1)
  200 95 (=87.2)
...

New Vsource.source
! ENABLED
! NPhases = 3
! Nconds = 3
! Nterms = 2
! Yorder = 6
! NodeRef = "1 2 3 0 0 0 "
! Terminal Status: [C C C C C C ]
! Terminal Bus Ref: [1 1 1 1 1 1 ]

! YPrim (G matrix)
!              0 |
!              0 |             0 |
!              0 |             0 |             0 |
!              0 |             0 |             0 |             0 |
!              0 |             0 |             0 |             0 |             0 |
!              0 |             0 |             0 |             0 |             0 |             0 |
! YPrim (B Matrix) = 
!         -10000 |
!              0 |        -10000 |
!              0 |             0 |        -10000 |
!          10000 |             0 |             0 |        -10000 |
!              0 |         10000 |             0 |             0 |        -10000 |
!              0 |             0 |         10000 |             0 |             0 |        -10000 |
! VARIABLES
~ bus1=150
~ basekv=4.16
~ pu=1.00
~ angle=0
~ frequency=60
~ phases=3
~ MVAsc3=1.7306E005
~ MVAsc1=1.7306E005
~ x1r1=4
~ x0r0=3
~ Isc3=2.4018E007
~ Isc1=2.4018E007
~ R1=0
~ X1=0.0001
~ R0=0
~ X0=0.0001
~ ScanType=Pos
~ Sequence=Pos
~ bus2=150.0.0.0
~ spectrum=defaultvsource
~ basefreq=60
~ enabled=true
~ like=

BaseFrequency=60.0
VMag=2401.78
Z Matrix=
0 +j 0.0001 
0 +j 0 0 +j 0.0001 
0 +j 0 0 +j 0 0 +j 0.0001 

New Transformer.reg1a
! ENABLED
! NPhases = 3
! Nconds = 4
! Nterms = 2
! Yorder = 8
! NodeRef = "1 2 3 0 4 5 6 0 "
! Terminal Status: [C C C C C C C C ]
! Terminal Bus Ref: [1 1 1 1 2 2 2 2 ]

! YPrim (G matrix)
!    288.8949271 |
!              0 |   288.8949271 |
!              0 |             0 |   288.8949271 |
!   -288.8949271 |  -288.8949271 |  -288.8949271 |   866.6847812 |
!   -278.4529418 |             0 |             0 |   278.4529418 |   268.3883776 |
!              0 |  -278.4529418 |             0 |   278.4529418 |             0 |   268.3883776 |
!              0 |             0 |  -278.4529418 |   278.4529418 |             0 |             0 |   268.3883776 |
!    278.4529418 |   278.4529418 |   278.4529418 |  -835.3588253 |  -268.3883776 |  -268.3883776 |  -268.3883776 |   805.1651328 |
! YPrim (B Matrix) = 
!   -28889.49271 |
!              0 |  -28889.49271 |
!              0 |             0 |  -28889.49271 |
!    28889.49271 |   28889.49271 |   28889.49271 |  -86668.47812 |
!    27845.29418 |             0 |             0 |  -27845.29418 |  -26838.83776 |
!              0 |   27845.29418 |             0 |  -27845.29418 |             0 |  -26838.83776 |
!              0 |             0 |   27845.29418 |  -27845.29418 |             0 |             0 |  -26838.83776 |
!   -27845.29418 |  -27845.29418 |  -27845.29418 |   83535.88253 |   26838.83776 |   26838.83776 |   26838.83776 |  -80516.51328 |
~ NumWindings=2
~ phases=3
~ Wdg=1 bus=150
~ conn=wye
~ kv=4.16
~ kva=5000.0
~ tap=1.000
~ %r=0.00
~ rneut=-1.000
~ xneut=0.000
~ Wdg=2 bus=150r
~ conn=wye
~ kv=4.16
~ kva=5000.0
~ tap=1.038
~ %r=0.00
~ rneut=-1.000
~ xneut=0.000
~ xhl=0.001
~ xht=35.000
~ xlt=30.000
~ Xscmatrix= "0.00 "
~ NormMAxHkVA=5500
~ EmergMAxHkVA=7500
~ thermal=2.0
~ n=0.8
~ m=0.8
~ flrise=65
~ hsrise=15
~ %loadloss=0
~ %noloadloss=0
~ normhkVA=
~ emerghkVA=
~ sub=n
~ MaxTap=1.1
~ MinTap=0.9
~ NumTaps=32
~ subname=
~ %imag=0
~ ppm_antifloat=0
~ %Rs=[5E-006, 5E-006, ]
~ bank=
~ XfmrCode=
~ normamps=763.32
~ emergamps=1040.9
~ faultrate=0.007
~ pctperm=100
~ repair=36
~ basefreq=60
~ enabled=true
~ like=

ZB: (inverted)
1666500016.6650 
-166650001666.5000 

Y_OneVolt
1666500016.6650 
-1666500016.6650 1666500016.6650 
-166650001666.5000 
166650001666.5000 -166650001666.5000 

Y_Terminal
288.8949 
-288.8949 288.8949 
-278.4529 278.4529 268.3884 
278.4529 -278.4529 -268.3884 268.3884 
-28889.4927 
28889.4927 -28889.4927 
27845.2942 -27845.2942 -26838.8378 
-27845.2942 27845.2942 26838.8378 -26838.8378 

TermRef= 1 4 5 8 2 4 6 8 3 4 7 8 

New RegControl.creg1a
! ENABLED
! NPhases = 3
! Nconds = 3
! Nterms = 1
! Yorder = 3
! NodeRef = "4 5 6 "
! Terminal Status: [C C C ]
! Terminal Bus Ref: [2 2 2 ]

~ transformer=reg1a
~ winding=2
~ vreg=120
~ band=2
~ ptratio=20
~ CTprim=700
~ R=3
~ X=7.5
~ bus=
~ delay=15
~ reversible=no
~ revvreg=120
~ revband=3
~ revR=0
~ revX=0
~ tapdelay=2
~ debugtrace=no
~ maxtapchange=1
~ inversetime=no
~ tapwinding=2
~ vlimit=0.0
~ PTphase=1
~ revThreshold=100
~ revDelay=60
~ revNeutral=No
~ basefreq=60
~ enabled=true
~ like=
! Bus =150r


New Line.l115
! ENABLED
! NPhases = 3
! Nconds = 3
! Nterms = 2
! Yorder = 6
! NodeRef = "7 8 9 10 11 12 "
! Terminal Status: [C C C C C C ]
! Terminal Bus Ref: [3 3 3 4 4 4 ]

! YPrim (G matrix)
!    6.422970611 |
!   -3.119897098 |   7.182343584 |
!   -1.125818194 |  -1.911067478 |   5.770479295 |
!   -6.422970611 |   3.119897098 |   1.125818194 |   6.422970611 |
!    3.119897098 |  -7.182343584 |   1.911067478 |  -3.119897098 |   7.182343584 |
!    1.125818194 |   1.911067478 |  -5.770479295 |  -1.125818194 |  -1.911067478 |   5.770479295 |
! YPrim (B Matrix) = 
!   -13.31824447 |
!    4.571812123 |  -13.80116134 |
!    2.969664676 |   3.624476505 |  -12.85328846 |
!    13.31824468 |  -4.571812192 |  -2.969664702 |  -13.31824447 |
!   -4.571812192 |   13.80116157 |  -3.624476549 |   4.571812123 |  -13.80116134 |
!   -2.969664702 |  -3.624476549 |   12.85328867 |   2.969664676 |   3.624476505 |  -12.85328846 |
~ bus1=149
~ bus2=1
~ linecode=1
~ length=0.400
~ phases=3
~ r1=0.05800
~ x1=0.12060
~ r0=0.17840
~ x0=0.40470
~ c1=3.40000
~ c0=1.60000
~ rmatrix="0.08667 0.02955 0.02907 |0.02955 0.08837 0.02992 |0.02907 0.02992 0.08741 |"
~ xmatrix="0.20417 0.09502 0.07290 |0.09502 0.19852 0.08023 |0.07290 0.08023 0.20172 |"
~ cmatrix="2.85 -0.92 -0.35 |-0.92 3.00 -0.59 |-0.35 -0.59 2.71 |"
~ cmatrix=false
~ Switch=False
~ Rg=0.01805
~ Xg=0.155081
~ rho=100
~ geometry=
~ units=NONE
~ spacing=
~ wires=
~ EarthModel=Deri
~ cncables=
~ tscables=
~ normamps=400
~ emergamps=600
~ faultrate=0.1
~ pctperm=20
~ repair=0
~ basefreq=60
~ enabled=true
~ like=

New Line.l1
! ENABLED
! NPhases = 1
! Nconds = 1
! Nterms = 2
! Yorder = 2
! NodeRef = "11 13 "
! Terminal Status: [C C ]
! Terminal Bus Ref: [4 5 ]

! YPrim (G matrix)
!    11.19428877 |
!   -11.19428877 |   11.19428877 |
! YPrim (B Matrix) = 
!   -11.34840807 |
!    11.34840815 |  -11.34840807 |
~ bus1=1.2
~ bus2=2.2
~ linecode=10
~ length=0.175
~ phases=1
~ r1=0.05800
~ x1=0.12060
~ r0=0.05800
~ x0=0.12060
~ c1=3.40000
~ c0=3.40000
~ rmatrix="0.25174 |"
~ xmatrix="0.25521 |"
~ cmatrix="2.27 |"
~ cmatrix=false
~ Switch=False
~ Rg=0.01805
~ Xg=0.155081
~ rho=100
~ geometry=
~ units=NONE
~ spacing=
~ wires=
~ EarthModel=Deri
~ cncables=
~ tscables=
~ normamps=400
~ emergamps=600
~ faultrate=0.1
~ pctperm=20
~ repair=0
~ basefreq=60
~ enabled=true
~ like=

New Line.l2
! ENABLED
! NPhases = 1
! Nconds = 1
! Nterms = 2
! Yorder = 2
! NodeRef = "12 14 "
! Terminal Status: [C C ]
! Terminal Bus Ref: [4 6 ]

! YPrim (G matrix)
!    7.836002137 |
!   -7.836002137 |   7.836002137 |
! YPrim (B Matrix) = 
!   -7.943885595 |
!    7.943885702 |  -7.943885595 |
~ bus1=1.3
~ bus2=3.3
~ linecode=11
~ length=0.250
~ phases=1
~ r1=0.05800
~ x1=0.12060
~ r0=0.05800
~ x0=0.12060
~ c1=3.40000
~ c0=3.40000
~ rmatrix="0.25174 |"
~ xmatrix="0.25521 |"
~ cmatrix="2.27 |"
~ cmatrix=false
~ Switch=False
~ Rg=0.01805
~ Xg=0.155081
~ rho=100
~ geometry=
~ units=NONE
~ spacing=
~ wires=
~ EarthModel=Deri
~ cncables=
~ tscables=
~ normamps=400
~ emergamps=600
~ faultrate=0.1
~ pctperm=20
~ repair=0
~ basefreq=60
~ enabled=true
~ like=

New Line.l3
! ENABLED
! NPhases = 3
! Nconds = 3
! Nterms = 2
! Yorder = 6
! NodeRef = "10 11 12 15 16 17 "
! Terminal Status: [C C C C C C ]
! Terminal Bus Ref: [4 4 4 7 7 7 ]

! YPrim (G matrix)
!    8.563960815 |
!   -4.159862797 |   9.576458112 |
!   -1.501090925 |  -2.548089971 |   7.693972394 |
!   -8.563960815 |   4.159862797 |   1.501090925 |   8.563960815 |
!    4.159862797 |  -9.576458112 |   2.548089971 |  -4.159862797 |   9.576458112 |
!    1.501090925 |   2.548089971 |  -7.693972394 |  -1.501090925 |  -2.548089971 |   7.693972394 |
! YPrim (B Matrix) = 
!   -17.75765942 |
!    6.095749537 |  -18.40154859 |
!    3.959552917 |   4.832635365 |  -17.13771807 |
!    17.75765958 |  -6.095749589 |  -3.959552937 |  -17.75765942 |
!   -6.095749589 |   18.40154876 |  -4.832635398 |   6.095749537 |  -18.40154859 |
!   -3.959552937 |  -4.832635398 |   17.13771822 |   3.959552917 |   4.832635365 |  -17.13771807 |
~ bus1=1.1.2.3
~ bus2=7.1.2.3
~ linecode=1
~ length=0.300
~ phases=3
~ r1=0.05800
~ x1=0.12060
~ r0=0.17840
~ x0=0.40470
~ c1=3.40000
~ c0=1.60000
~ rmatrix="0.08667 0.02955 0.02907 |0.02955 0.08837 0.02992 |0.02907 0.02992 0.08741 |"
~ xmatrix="0.20417 0.09502 0.07290 |0.09502 0.19852 0.08023 |0.07290 0.08023 0.20172 |"
~ cmatrix="2.85 -0.92 -0.35 |-0.92 3.00 -0.59 |-0.35 -0.59 2.71 |"
~ cmatrix=false
~ Switch=False
~ Rg=0.01805
~ Xg=0.155081
~ rho=100
~ geometry=
~ units=NONE
~ spacing=
~ wires=
~ EarthModel=Deri
~ cncables=
~ tscables=
~ normamps=400
~ emergamps=600
~ faultrate=0.1
~ pctperm=20
~ repair=0
~ basefreq=60
~ enabled=true
~ like=

New Line.l4
! ENABLED
! NPhases = 1
! Nconds = 1
! Nterms = 2
! Yorder = 2
! NodeRef = "14 18 "
! Terminal Status: [C C ]
! Terminal Bus Ref: [6 8 ]

! YPrim (G matrix)
!    9.795002671 |
!   -9.795002671 |   9.795002671 |
! YPrim (B Matrix) = 
!   -9.929857042 |
!    9.929857128 |  -9.929857042 |
~ bus1=3.3
~ bus2=4.3
~ linecode=11
~ length=0.200
~ phases=1
~ r1=0.05800
~ x1=0.12060
~ r0=0.05800
~ x0=0.12060
~ c1=3.40000
~ c0=3.40000
~ rmatrix="0.25174 |"
~ xmatrix="0.25521 |"
~ cmatrix="2.27 |"
~ cmatrix=false
~ Switch=False
~ Rg=0.01805
~ Xg=0.155081
~ rho=100
~ geometry=
~ units=NONE
~ spacing=
~ wires=
~ EarthModel=Deri
~ cncables=
~ tscables=
~ normamps=400
~ emergamps=600
~ faultrate=0.1
~ pctperm=20
~ repair=0
~ basefreq=60
~ enabled=true
~ like=

New Line.l5
! ENABLED
! NPhases = 1
! Nconds = 1
! Nterms = 2
! Yorder = 2
! NodeRef = "14 19 "
! Terminal Status: [C C ]
! Terminal Bus Ref: [6 9 ]

! YPrim (G matrix)
!    6.027693951 |
!   -6.027693951 |   6.027693951 |
! YPrim (B Matrix) = 
!    -6.11068117 |
!     6.11068131 |   -6.11068117 |
~ bus1=3.3
~ bus2=5.3
~ linecode=11
~ length=0.325
~ phases=1
~ r1=0.05800
~ x1=0.12060
~ r0=0.05800
~ x0=0.12060
~ c1=3.40000
~ c0=3.40000
~ rmatrix="0.25174 |"
~ xmatrix="0.25521 |"
~ cmatrix="2.27 |"
~ cmatrix=false
~ Switch=False
~ Rg=0.01805
~ Xg=0.155081
~ rho=100
~ geometry=
~ units=NONE
~ spacing=
~ wires=
~ EarthModel=Deri
~ cncables=
~ tscables=
~ normamps=400
~ emergamps=600
~ faultrate=0.1
~ pctperm=20
~ repair=0
~ basefreq=60
~ enabled=true
~ like=

New Line.l6
! ENABLED
! NPhases = 1
! Nconds = 1
! Nterms = 2
! Yorder = 2
! NodeRef = "19 20 "
! Terminal Status: [C C ]
! Terminal Bus Ref: [9 10 ]

! YPrim (G matrix)
!    7.836002137 |
!   -7.836002137 |   7.836002137 |
! YPrim (B Matrix) = 
!   -7.943885595 |
!    7.943885702 |  -7.943885595 |
~ bus1=5.3
~ bus2=6.3
~ linecode=11
~ length=0.250
~ phases=1
~ r1=0.05800
~ x1=0.12060
~ r0=0.05800
~ x0=0.12060
~ c1=3.40000
~ c0=3.40000
~ rmatrix="0.25174 |"
~ xmatrix="0.25521 |"
~ cmatrix="2.27 |"
~ cmatrix=false
~ Switch=False
~ Rg=0.01805
~ Xg=0.155081
~ rho=100
~ geometry=
~ units=NONE
~ spacing=
~ wires=
~ EarthModel=Deri
~ cncables=
~ tscables=
~ normamps=400
~ emergamps=600
~ faultrate=0.1
~ pctperm=20
~ repair=0
~ basefreq=60
~ enabled=true
~ like=

New Line.l7
! ENABLED
! NPhases = 3
! Nconds = 3
! Nterms = 2
! Yorder = 6
! NodeRef = "15 16 17 21 22 23 "
! Terminal Status: [C C C C C C ]
! Terminal Bus Ref: [7 7 7 11 11 11 ]

! YPrim (G matrix)
!    12.84594122 |
!   -6.239794195 |   14.36468717 |
!   -2.251636388 |  -3.822134956 |   11.54095859 |
!   -12.84594122 |   6.239794195 |   2.251636388 |   12.84594122 |
!    6.239794195 |  -14.36468717 |   3.822134956 |  -6.239794195 |   14.36468717 |
!    2.251636388 |   3.822134956 |  -11.54095859 |  -2.251636388 |  -3.822134956 |   11.54095859 |
! YPrim (B Matrix) = 
!   -26.63648926 |
!    9.143624349 |  -27.60232303 |
!    5.939329392 |   7.248953076 |  -25.70657723 |
!    26.63648937 |  -9.143624384 |  -5.939329405 |  -26.63648926 |
!   -9.143624384 |   27.60232314 |  -7.248953098 |   9.143624349 |  -27.60232303 |
!   -5.939329405 |  -7.248953098 |   25.70657733 |   5.939329392 |   7.248953076 |  -25.70657723 |
~ bus1=7.1.2.3
~ bus2=8.1.2.3
~ linecode=1
~ length=0.200
~ phases=3
~ r1=0.05800
~ x1=0.12060
~ r0=0.17840
~ x0=0.40470
~ c1=3.40000
~ c0=1.60000
~ rmatrix="0.08667 0.02955 0.02907 |0.02955 0.08837 0.02992 |0.02907 0.02992 0.08741 |"
~ xmatrix="0.20417 0.09502 0.07290 |0.09502 0.19852 0.08023 |0.07290 0.08023 0.20172 |"
~ cmatrix="2.85 -0.92 -0.35 |-0.92 3.00 -0.59 |-0.35 -0.59 2.71 |"
~ cmatrix=false
~ Switch=False
~ Rg=0.01805
~ Xg=0.155081
~ rho=100
~ geometry=
~ units=NONE
~ spacing=
~ wires=
~ EarthModel=Deri
~ cncables=
~ tscables=
~ normamps=400
~ emergamps=600
~ faultrate=0.1
~ pctperm=20
~ repair=0
~ basefreq=60
~ enabled=true
~ like=

New Line.l8
! ENABLED
! NPhases = 1
! Nconds = 1
! Nterms = 2
! Yorder = 2
! NodeRef = "22 24 "
! Terminal Status: [C C ]
! Terminal Bus Ref: [11 12 ]

! YPrim (G matrix)
!    8.706669041 |
!   -8.706669041 |   8.706669041 |
! YPrim (B Matrix) = 
!   -8.826539573 |
!    8.826539669 |  -8.826539573 |
~ bus1=8.2
~ bus2=12.2
~ linecode=10
~ length=0.225
~ phases=1
~ r1=0.05800
~ x1=0.12060
~ r0=0.05800
~ x0=0.12060
~ c1=3.40000
~ c0=3.40000
~ rmatrix="0.25174 |"
~ xmatrix="0.25521 |"
~ cmatrix="2.27 |"
~ cmatrix=false
~ Switch=False
~ Rg=0.01805
~ Xg=0.155081
~ rho=100
~ geometry=
~ units=NONE
~ spacing=
~ wires=
~ EarthModel=Deri
~ cncables=
~ tscables=
~ normamps=400
~ emergamps=600
~ faultrate=0.1
~ pctperm=20
~ repair=0
~ basefreq=60
~ enabled=true
~ like=

New Line.l9
! ENABLED
! NPhases = 1
! Nconds = 1
! Nterms = 2
! Yorder = 2
! NodeRef = "21 25 "
! Terminal Status: [C C ]
! Terminal Bus Ref: [11 13 ]

! YPrim (G matrix)
!    8.706669041 |
!   -8.706669041 |   8.706669041 |
! YPrim (B Matrix) = 
!   -8.826539573 |
!    8.826539669 |  -8.826539573 |
~ bus1=8.1
~ bus2=9.1
~ linecode=9
~ length=0.225
~ phases=1
~ r1=0.05800
~ x1=0.12060
~ r0=0.05800
~ x0=0.12060
~ c1=3.40000
~ c0=3.40000
~ rmatrix="0.25174 |"
~ xmatrix="0.25521 |"
~ cmatrix="2.27 |"
~ cmatrix=false
~ Switch=False
~ Rg=0.01805
~ Xg=0.155081
~ rho=100
~ geometry=
~ units=NONE
~ spacing=
~ wires=
~ EarthModel=Deri
~ cncables=
~ tscables=
~ normamps=400
~ emergamps=600
~ faultrate=0.1
~ pctperm=20
~ repair=0
~ basefreq=60
~ enabled=true
~ like=

New Line.l10
! ENABLED
! NPhases = 3
! Nconds = 3
! Nterms = 2
! Yorder = 6
! NodeRef = "21 22 23 26 27 28 "
! Terminal Status: [C C C C C C ]
! Terminal Bus Ref: [11 11 11 14 14 14 ]

! YPrim (G matrix)
!    8.563960815 |
!   -4.159862797 |   9.576458112 |
!   -1.501090925 |  -2.548089971 |   7.693972394 |
!   -8.563960815 |   4.159862797 |   1.501090925 |   8.563960815 |
!    4.159862797 |  -9.576458112 |   2.548089971 |  -4.159862797 |   9.576458112 |
!    1.501090925 |   2.548089971 |  -7.693972394 |  -1.501090925 |  -2.548089971 |   7.693972394 |
! YPrim (B Matrix) = 
!   -17.75765942 |
!    6.095749537 |  -18.40154859 |
!    3.959552917 |   4.832635365 |  -17.13771807 |
!    17.75765958 |  -6.095749589 |  -3.959552937 |  -17.75765942 |
!   -6.095749589 |   18.40154876 |  -4.832635398 |   6.095749537 |  -18.40154859 |
!   -3.959552937 |  -4.832635398 |   17.13771822 |   3.959552917 |   4.832635365 |  -17.13771807 |
~ bus1=8.1.2.3
~ bus2=13.1.2.3
~ linecode=1
~ length=0.300
~ phases=3
~ r1=0.05800
~ x1=0.12060
~ r0=0.17840
~ x0=0.40470
~ c1=3.40000
~ c0=1.60000
~ rmatrix="0.08667 0.02955 0.02907 |0.02955 0.08837 0.02992 |0.02907 0.02992 0.08741 |"
~ xmatrix="0.20417 0.09502 0.07290 |0.09502 0.19852 0.08023 |0.07290 0.08023 0.20172 |"
~ cmatrix="2.85 -0.92 -0.35 |-0.92 3.00 -0.59 |-0.35 -0.59 2.71 |"
~ cmatrix=false
~ Switch=False
~ Rg=0.01805
~ Xg=0.155081
~ rho=100
~ geometry=
~ units=NONE
~ spacing=
~ wires=
~ EarthModel=Deri
~ cncables=
~ tscables=
~ normamps=400
~ emergamps=600
~ faultrate=0.1
~ pctperm=20
~ repair=0
~ basefreq=60
~ enabled=true
~ like=

New Line.l11
! ENABLED
! NPhases = 1
! Nconds = 1
! Nterms = 2
! Yorder = 2
! NodeRef = "29 30 "
! Terminal Status: [C C ]
! Terminal Bus Ref: [15 16 ]

! YPrim (G matrix)
!    4.609413022 |
!   -4.609413022 |   4.609413022 |
! YPrim (B Matrix) = 
!   -4.672873761 |
!    4.672873943 |  -4.672873761 |
~ bus1=9r.1
~ bus2=14.1
~ linecode=9
~ length=0.425
~ phases=1
~ r1=0.05800
~ x1=0.12060
~ r0=0.05800
~ x0=0.12060
~ c1=3.40000
~ c0=3.40000
~ rmatrix="0.25174 |"
~ xmatrix="0.25521 |"
~ cmatrix="2.27 |"
~ cmatrix=false
~ Switch=False
~ Rg=0.01805
~ Xg=0.155081
~ rho=100
~ geometry=
~ units=NONE
~ spacing=
~ wires=
~ EarthModel=Deri
~ cncables=
~ tscables=
~ normamps=400
~ emergamps=600
~ faultrate=0.1
~ pctperm=20
~ repair=0
~ basefreq=60
~ enabled=true
~ like=

New Line.l12
! ENABLED
! NPhases = 1
! Nconds = 1
! Nterms = 2
! Yorder = 2
! NodeRef = "28 31 "
! Terminal Status: [C C ]
! Terminal Bus Ref: [14 17 ]

! YPrim (G matrix)
!    13.06000356 |
!   -13.06000356 |   13.06000356 |
! YPrim (B Matrix) = 
!   -13.23980944 |
!     13.2398095 |  -13.23980944 |
~ bus1=13.3
~ bus2=34.3
~ linecode=11
~ length=0.150
~ phases=1
~ r1=0.05800
~ x1=0.12060
~ r0=0.05800
~ x0=0.12060
~ c1=3.40000
~ c0=3.40000
~ rmatrix="0.25174 |"
~ xmatrix="0.25521 |"
~ cmatrix="2.27 |"
~ cmatrix=false
~ Switch=False
~ Rg=0.01805
~ Xg=0.155081
~ rho=100
~ geometry=
~ units=NONE
~ spacing=
~ wires=
~ EarthModel=Deri
~ cncables=
~ tscables=
~ normamps=400
~ emergamps=600
~ faultrate=0.1
~ pctperm=20
~ repair=0
~ basefreq=60
~ enabled=true
~ like=

New Line.l13
! ENABLED
! NPhases = 3
! Nconds = 3
! Nterms = 2
! Yorder = 6
! NodeRef = "26 27 28 32 33 34 "
! Terminal Status: [C C C C C C ]
! Terminal Bus Ref: [14 14 14 18 18 18 ]

! YPrim (G matrix)
!    3.482348433 |
!  -0.9265782276 |   2.797808171 |
!   -1.512677372 | -0.5458512332 |   3.114167561 |
!   -3.482348433 |  0.9265782276 |   1.512677372 |   3.482348433 |
!   0.9265782276 |  -2.797808171 |  0.5458512332 | -0.9265782276 |   2.797808171 |
!    1.512677372 |  0.5458512332 |  -3.114167561 |  -1.512677372 | -0.5458512332 |   3.114167561 |
! YPrim (B Matrix) = 
!   -6.691471769 |
!      1.7573218 |  -6.231897078 |
!    2.216636078 |   1.439837399 |  -6.457330324 |
!    6.691472236 |  -1.757321891 |  -2.216636221 |  -6.691471769 |
!   -1.757321891 |     6.2318975 |  -1.439837454 |     1.7573218 |  -6.231897078 |
!   -2.216636221 |  -1.439837454 |   6.457330767 |   2.216636078 |   1.439837399 |  -6.457330324 |
~ bus1=13.1.2.3
~ bus2=18.1.2.3
~ linecode=2
~ length=0.825
~ phases=3
~ r1=0.05800
~ x1=0.12060
~ r0=0.17840
~ x0=0.40470
~ c1=3.40000
~ c0=1.60000
~ rmatrix="0.08837 0.02992 0.02955 |0.02992 0.08741 0.02907 |0.02955 0.02907 0.08667 |"
~ xmatrix="0.19852 0.08023 0.09502 |0.08023 0.20172 0.07290 |0.09502 0.07290 0.20417 |"
~ cmatrix="3.00 -0.59 -0.92 |-0.59 2.71 -0.35 |-0.92 -0.35 2.85 |"
~ cmatrix=false
~ Switch=False
~ Rg=0.01805
~ Xg=0.155081
~ rho=100
~ geometry=
~ units=NONE
~ spacing=
~ wires=
~ EarthModel=Deri
~ cncables=
~ tscables=
~ normamps=400
~ emergamps=600
~ faultrate=0.1
~ pctperm=20
~ repair=0
~ basefreq=60
~ enabled=true
~ like=

New Line.l14
! ENABLED
! NPhases = 1
! Nconds = 1
! Nterms = 2
! Yorder = 2
! NodeRef = "30 35 "
! Terminal Status: [C C ]
! Terminal Bus Ref: [16 19 ]

! YPrim (G matrix)
!    7.836002137 |
!   -7.836002137 |   7.836002137 |
! YPrim (B Matrix) = 
!   -7.943885595 |
!    7.943885702 |  -7.943885595 |
~ bus1=14.1
~ bus2=11.1
~ linecode=9
~ length=0.250
~ phases=1
~ r1=0.05800
~ x1=0.12060
~ r0=0.05800
~ x0=0.12060
~ c1=3.40000
~ c0=3.40000
~ rmatrix="0.25174 |"
~ xmatrix="0.25521 |"
~ cmatrix="2.27 |"
~ cmatrix=false
~ Switch=False
~ Rg=0.01805
~ Xg=0.155081
~ rho=100
~ geometry=
~ units=NONE
~ spacing=
~ wires=
~ EarthModel=Deri
~ cncables=
~ tscables=
~ normamps=400
~ emergamps=600
~ faultrate=0.1
~ pctperm=20
~ repair=0
~ basefreq=60
~ enabled=true
~ like=

New Line.l15
! ENABLED
! NPhases = 1
! Nconds = 1
! Nterms = 2
! Yorder = 2
! NodeRef = "30 36 "
! Terminal Status: [C C ]
! Terminal Bus Ref: [16 20 ]

! YPrim (G matrix)
!    7.836002137 |
!   -7.836002137 |   7.836002137 |
! YPrim (B Matrix) = 
!   -7.943885595 |
!    7.943885702 |  -7.943885595 |
~ bus1=14.1
~ bus2=10.1
~ linecode=9
~ length=0.250
~ phases=1
~ r1=0.05800
~ x1=0.12060
~ r0=0.05800
~ x0=0.12060
~ c1=3.40000
~ c0=3.40000
~ rmatrix="0.25174 |"
~ xmatrix="0.25521 |"
~ cmatrix="2.27 |"
~ cmatrix=false
~ Switch=False
~ Rg=0.01805
~ Xg=0.155081
~ rho=100
~ geometry=
~ units=NONE
~ spacing=
~ wires=
~ EarthModel=Deri
~ cncables=
~ tscables=
~ normamps=400
~ emergamps=600
~ faultrate=0.1
~ pctperm=20
~ repair=0
~ basefreq=60
~ enabled=true
~ like=

New Line.l16
! ENABLED
! NPhases = 1
! Nconds = 1
! Nterms = 2
! Yorder = 2
! NodeRef = "37 38 "
! Terminal Status: [C C ]
! Terminal Bus Ref: [21 22 ]

! YPrim (G matrix)
!    5.224001424 |
!   -5.224001424 |   5.224001424 |
! YPrim (B Matrix) = 
!   -5.295923641 |
!    5.295923802 |  -5.295923641 |
~ bus1=15.3
~ bus2=16.3
~ linecode=11
~ length=0.375
~ phases=1
~ r1=0.05800
~ x1=0.12060
~ r0=0.05800
~ x0=0.12060
~ c1=3.40000
~ c0=3.40000
~ rmatrix="0.25174 |"
~ xmatrix="0.25521 |"
~ cmatrix="2.27 |"
~ cmatrix=false
~ Switch=False
~ Rg=0.01805
~ Xg=0.155081
~ rho=100
~ geometry=
~ units=NONE
~ spacing=
~ wires=
~ EarthModel=Deri
~ cncables=
~ tscables=
~ normamps=400
~ emergamps=600
~ faultrate=0.1
~ pctperm=20
~ repair=0
~ basefreq=60
~ enabled=true
~ like=

New Line.l17
! ENABLED
! NPhases = 1
! Nconds = 1
! Nterms = 2
! Yorder = 2
! NodeRef = "37 39 "
! Terminal Status: [C C ]
! Terminal Bus Ref: [21 23 ]

! YPrim (G matrix)
!    5.597144383 |
!   -5.597144383 |   5.597144383 |
! YPrim (B Matrix) = 
!   -5.674203923 |
!    5.674204073 |  -5.674203923 |
~ bus1=15.3
~ bus2=17.3
~ linecode=11
~ length=0.350
~ phases=1
~ r1=0.05800
~ x1=0.12060
~ r0=0.05800
~ x0=0.12060
~ c1=3.40000
~ c0=3.40000
~ rmatrix="0.25174 |"
~ xmatrix="0.25521 |"
~ cmatrix="2.27 |"
~ cmatrix=false
~ Switch=False
~ Rg=0.01805
~ Xg=0.155081
~ rho=100
~ geometry=
~ units=NONE
~ spacing=
~ wires=
~ EarthModel=Deri
~ cncables=
~ tscables=
~ normamps=400
~ emergamps=600
~ faultrate=0.1
~ pctperm=20
~ repair=0
~ basefreq=60
~ enabled=true
~ like=

New Line.l18
! ENABLED
! NPhases = 1
! Nconds = 1
! Nterms = 2
! Yorder = 2
! NodeRef = "32 40 "
! Terminal Status: [C C ]
! Terminal Bus Ref: [18 24 ]

! YPrim (G matrix)
!    7.836002137 |
!   -7.836002137 |   7.836002137 |
! YPrim (B Matrix) = 
!   -7.943885595 |
!    7.943885702 |  -7.943885595 |
~ bus1=18.1
~ bus2=19.1
~ linecode=9
~ length=0.250
~ phases=1
~ r1=0.05800
~ x1=0.12060
~ r0=0.05800
~ x0=0.12060
~ c1=3.40000
~ c0=3.40000
~ rmatrix="0.25174 |"
~ xmatrix="0.25521 |"
~ cmatrix="2.27 |"
~ cmatrix=false
~ Switch=False
~ Rg=0.01805
~ Xg=0.155081
~ rho=100
~ geometry=
~ units=NONE
~ spacing=
~ wires=
~ EarthModel=Deri
~ cncables=
~ tscables=
~ normamps=400
~ emergamps=600
~ faultrate=0.1
~ pctperm=20
~ repair=0
~ basefreq=60
~ enabled=true
~ like=

New Line.l19
! ENABLED
! NPhases = 3
! Nconds = 3
! Nterms = 2
! Yorder = 6
! NodeRef = "32 33 34 41 42 43 "
! Terminal Status: [C C C C C C ]
! Terminal Bus Ref: [18 18 18 25 25 25 ]

! YPrim (G matrix)
!    9.576458189 |
!   -2.548090126 |    7.69397247 |
!   -4.159862773 |  -1.501090891 |   8.563960793 |
!   -9.576458189 |   2.548090126 |   4.159862773 |   9.576458189 |
!    2.548090126 |   -7.69397247 |   1.501090891 |  -2.548090126 |    7.69397247 |
!    4.159862773 |   1.501090891 |  -8.563960793 |  -4.159862773 |  -1.501090891 |   8.563960793 |
! YPrim (B Matrix) = 
!   -18.40154848 |
!    4.832635167 |  -17.13771797 |
!    6.095749555 |   3.959552977 |  -17.75765945 |
!    18.40154865 |    -4.8326352 |  -6.095749607 |  -18.40154848 |
!     -4.8326352 |   17.13771813 |  -3.959552997 |   4.832635167 |  -17.13771797 |
!   -6.095749607 |  -3.959552997 |   17.75765961 |   6.095749555 |   3.959552977 |  -17.75765945 |
~ bus1=18.1.2.3
~ bus2=21.1.2.3
~ linecode=2
~ length=0.300
~ phases=3
~ r1=0.05800
~ x1=0.12060
~ r0=0.17840
~ x0=0.40470
~ c1=3.40000
~ c0=1.60000
~ rmatrix="0.08837 0.02992 0.02955 |0.02992 0.08741 0.02907 |0.02955 0.02907 0.08667 |"
~ xmatrix="0.19852 0.08023 0.09502 |0.08023 0.20172 0.07290 |0.09502 0.07290 0.20417 |"
~ cmatrix="3.00 -0.59 -0.92 |-0.59 2.71 -0.35 |-0.92 -0.35 2.85 |"
~ cmatrix=false
~ Switch=False
~ Rg=0.01805
~ Xg=0.155081
~ rho=100
~ geometry=
~ units=NONE
~ spacing=
~ wires=
~ EarthModel=Deri
~ cncables=
~ tscables=
~ normamps=400
~ emergamps=600
~ faultrate=0.1
~ pctperm=20
~ repair=0
~ basefreq=60
~ enabled=true
~ like=

New Line.l20
! ENABLED
! NPhases = 1
! Nconds = 1
! Nterms = 2
! Yorder = 2
! NodeRef = "40 44 "
! Terminal Status: [C C ]
! Terminal Bus Ref: [24 26 ]

! YPrim (G matrix)
!    6.027693951 |
!   -6.027693951 |   6.027693951 |
! YPrim (B Matrix) = 
!    -6.11068117 |
!     6.11068131 |   -6.11068117 |
~ bus1=19.1
~ bus2=20.1
~ linecode=9
~ length=0.325
~ phases=1
~ r1=0.05800
~ x1=0.12060
~ r0=0.05800
~ x0=0.12060
~ c1=3.40000
~ c0=3.40000
~ rmatrix="0.25174 |"
~ xmatrix="0.25521 |"
~ cmatrix="2.27 |"
~ cmatrix=false
~ Switch=False
~ Rg=0.01805
~ Xg=0.155081
~ rho=100
~ geometry=
~ units=NONE
~ spacing=
~ wires=
~ EarthModel=Deri
~ cncables=
~ tscables=
~ normamps=400
~ emergamps=600
~ faultrate=0.1
~ pctperm=20
~ repair=0
~ basefreq=60
~ enabled=true
~ like=

New Line.l21
! ENABLED
! NPhases = 1
! Nconds = 1
! Nterms = 2
! Yorder = 2
! NodeRef = "42 45 "
! Terminal Status: [C C ]
! Terminal Bus Ref: [25 27 ]

! YPrim (G matrix)
!    3.731429589 |
!   -3.731429589 |   3.731429589 |
! YPrim (B Matrix) = 
!   -3.782802491 |
!    3.782802715 |  -3.782802491 |
~ bus1=21.2
~ bus2=22.2
~ linecode=10
~ length=0.525
~ phases=1
~ r1=0.05800
~ x1=0.12060
~ r0=0.05800
~ x0=0.12060
~ c1=3.40000
~ c0=3.40000
~ rmatrix="0.25174 |"
~ xmatrix="0.25521 |"
~ cmatrix="2.27 |"
~ cmatrix=false
~ Switch=False
~ Rg=0.01805
~ Xg=0.155081
~ rho=100
~ geometry=
~ units=NONE
~ spacing=
~ wires=
~ EarthModel=Deri
~ cncables=
~ tscables=
~ normamps=400
~ emergamps=600
~ faultrate=0.1
~ pctperm=20
~ repair=0
~ basefreq=60
~ enabled=true
~ like=

New Line.l22
! ENABLED
! NPhases = 3
! Nconds = 3
! Nterms = 2
! Yorder = 6
! NodeRef = "41 42 43 46 47 48 "
! Terminal Status: [C C C C C C ]
! Terminal Bus Ref: [25 25 25 28 28 28 ]

! YPrim (G matrix)
!    11.49174983 |
!   -3.057708151 |   9.232766964 |
!   -4.991835327 |  -1.801309069 |   10.27675295 |
!   -11.49174983 |   3.057708151 |   4.991835327 |   11.49174983 |
!    3.057708151 |  -9.232766964 |   1.801309069 |  -3.057708151 |   9.232766964 |
!    4.991835327 |   1.801309069 |  -10.27675295 |  -4.991835327 |  -1.801309069 |   10.27675295 |
! YPrim (B Matrix) = 
!   -22.08185824 |
!    5.799162213 |  -20.56526162 |
!    7.314899485 |    4.75146358 |   -21.3091914 |
!    22.08185838 |   -5.79916224 |  -7.314899529 |  -22.08185824 |
!    -5.79916224 |   20.56526175 |  -4.751463597 |   5.799162213 |  -20.56526162 |
!   -7.314899529 |  -4.751463597 |   21.30919153 |   7.314899485 |    4.75146358 |   -21.3091914 |
~ bus1=21.1.2.3
~ bus2=23.1.2.3
~ linecode=2
~ length=0.250
~ phases=3
~ r1=0.05800
~ x1=0.12060
~ r0=0.17840
~ x0=0.40470
~ c1=3.40000
~ c0=1.60000
~ rmatrix="0.08837 0.02992 0.02955 |0.02992 0.08741 0.02907 |0.02955 0.02907 0.08667 |"
~ xmatrix="0.19852 0.08023 0.09502 |0.08023 0.20172 0.07290 |0.09502 0.07290 0.20417 |"
~ cmatrix="3.00 -0.59 -0.92 |-0.59 2.71 -0.35 |-0.92 -0.35 2.85 |"
~ cmatrix=false
~ Switch=False
~ Rg=0.01805
~ Xg=0.155081
~ rho=100
~ geometry=
~ units=NONE
~ spacing=
~ wires=
~ EarthModel=Deri
~ cncables=
~ tscables=
~ normamps=400
~ emergamps=600
~ faultrate=0.1
~ pctperm=20
~ repair=0
~ basefreq=60
~ enabled=true
~ like=

New Line.l23
! ENABLED
! NPhases = 1
! Nconds = 1
! Nterms = 2
! Yorder = 2
! NodeRef = "48 49 "
! Terminal Status: [C C ]
! Terminal Bus Ref: [28 29 ]

! YPrim (G matrix)
!    3.561819153 |
!   -3.561819153 |   3.561819153 |
! YPrim (B Matrix) = 
!   -3.610856902 |
!    3.610857137 |  -3.610856902 |
~ bus1=23.3
~ bus2=24.3
~ linecode=11
~ length=0.550
~ phases=1
~ r1=0.05800
~ x1=0.12060
~ r0=0.05800
~ x0=0.12060
~ c1=3.40000
~ c0=3.40000
~ rmatrix="0.25174 |"
~ xmatrix="0.25521 |"
~ cmatrix="2.27 |"
~ cmatrix=false
~ Switch=False
~ Rg=0.01805
~ Xg=0.155081
~ rho=100
~ geometry=
~ units=NONE
~ spacing=
~ wires=
~ EarthModel=Deri
~ cncables=
~ tscables=
~ normamps=400
~ emergamps=600
~ faultrate=0.1
~ pctperm=20
~ repair=0
~ basefreq=60
~ enabled=true
~ like=

New Line.l24
! ENABLED
! NPhases = 3
! Nconds = 3
! Nterms = 2
! Yorder = 6
! NodeRef = "46 47 48 50 51 52 "
! Terminal Status: [C C C C C C ]
! Terminal Bus Ref: [28 28 28 30 30 30 ]

! YPrim (G matrix)
!     10.4470453 |
!   -2.779734683 |   8.393424512 |
!   -4.538032116 |  -1.637553699 |   9.342502684 |
!    -10.4470453 |   2.779734683 |   4.538032116 |    10.4470453 |
!    2.779734683 |  -8.393424512 |   1.637553699 |  -2.779734683 |   8.393424512 |
!    4.538032116 |   1.637553699 |  -9.342502684 |  -4.538032116 |  -1.637553699 |   9.342502684 |
! YPrim (B Matrix) = 
!   -20.07441655 |
!    5.271965643 |  -18.69569236 |
!    6.649908615 |   4.319512342 |  -19.37199215 |
!    20.07441671 |  -5.271965673 |  -6.649908663 |  -20.07441655 |
!   -5.271965673 |    18.6956925 |  -4.319512361 |   5.271965643 |  -18.69569236 |
!   -6.649908663 |  -4.319512361 |    19.3719923 |   6.649908615 |   4.319512342 |  -19.37199215 |
~ bus1=23.1.2.3
~ bus2=25.1.2.3
~ linecode=2
~ length=0.275
~ phases=3
~ r1=0.05800
~ x1=0.12060
~ r0=0.17840
~ x0=0.40470
~ c1=3.40000
~ c0=1.60000
~ rmatrix="0.08837 0.02992 0.02955 |0.02992 0.08741 0.02907 |0.02955 0.02907 0.08667 |"
~ xmatrix="0.19852 0.08023 0.09502 |0.08023 0.20172 0.07290 |0.09502 0.07290 0.20417 |"
~ cmatrix="3.00 -0.59 -0.92 |-0.59 2.71 -0.35 |-0.92 -0.35 2.85 |"
~ cmatrix=false
~ Switch=False
~ Rg=0.01805
~ Xg=0.155081
~ rho=100
~ geometry=
~ units=NONE
~ spacing=
~ wires=
~ EarthModel=Deri
~ cncables=
~ tscables=
~ normamps=400
~ emergamps=600
~ faultrate=0.1
~ pctperm=20
~ repair=0
~ basefreq=60
~ enabled=true
~ like=

New Line.l25
! ENABLED
! NPhases = 2
! Nconds = 2
! Nterms = 2
! Yorder = 4
! NodeRef = "53 54 55 56 "
! Terminal Status: [C C C C ]
! Terminal Bus Ref: [31 31 32 32 ]

! YPrim (G matrix)
!    5.860384603 |
!   -2.233075242 |   6.013774645 |
!   -5.860384603 |   2.233075242 |   5.860384603 |
!    2.233075242 |  -6.013774645 |  -2.233075242 |   6.013774645 |
! YPrim (B Matrix) = 
!   -13.52577148 |
!    4.764880546 |  -13.60166808 |
!    13.52577165 |  -4.764880581 |  -13.52577148 |
!   -4.764880581 |   13.60166826 |   4.764880546 |  -13.60166808 |
~ bus1=25r.1.3
~ bus2=26.1.3
~ linecode=7
~ length=0.350
~ phases=2
~ r1=0.05800
~ x1=0.12060
~ r0=0.17840
~ x0=0.40470
~ c1=3.40000
~ c0=1.60000
~ rmatrix="0.08667 0.02907 |0.02907 0.08741 |"
~ xmatrix="0.20417 0.07290 |0.07290 0.20172 |"
~ cmatrix="2.57 -0.53 |-0.53 2.60 |"
~ cmatrix=false
~ Switch=False
~ Rg=0.01805
~ Xg=0.155081
~ rho=100
~ geometry=
~ units=NONE
~ spacing=
~ wires=
~ EarthModel=Deri
~ cncables=
~ tscables=
~ normamps=400
~ emergamps=600
~ faultrate=0.1
~ pctperm=20
~ repair=0
~ basefreq=60
~ enabled=true
~ like=

New Line.l26
! ENABLED
! NPhases = 3
! Nconds = 3
! Nterms = 2
! Yorder = 6
! NodeRef = "50 51 52 57 58 59 "
! Terminal Status: [C C C C C C ]
! Terminal Bus Ref: [30 30 30 33 33 33 ]

! YPrim (G matrix)
!    14.36468728 |
!   -3.822135189 |    11.5409587 |
!   -6.239794159 |  -2.251636337 |   12.84594119 |
!   -14.36468728 |   3.822135189 |   6.239794159 |   14.36468728 |
!    3.822135189 |   -11.5409587 |   2.251636337 |  -3.822135189 |    11.5409587 |
!    6.239794159 |   2.251636337 |  -12.84594119 |  -6.239794159 |  -2.251636337 |   12.84594119 |
! YPrim (B Matrix) = 
!   -27.60232286 |
!    7.248952778 |  -25.70657709 |
!    9.143624376 |   5.939329483 |  -26.63648931 |
!    27.60232297 |    -7.2489528 |  -9.143624411 |  -27.60232286 |
!     -7.2489528 |   25.70657719 |  -5.939329496 |   7.248952778 |  -25.70657709 |
!   -9.143624411 |  -5.939329496 |   26.63648942 |   9.143624376 |   5.939329483 |  -26.63648931 |
~ bus1=25.1.2.3
~ bus2=28.1.2.3
~ linecode=2
~ length=0.200
~ phases=3
~ r1=0.05800
~ x1=0.12060
~ r0=0.17840
~ x0=0.40470
~ c1=3.40000
~ c0=1.60000
~ rmatrix="0.08837 0.02992 0.02955 |0.02992 0.08741 0.02907 |0.02955 0.02907 0.08667 |"
~ xmatrix="0.19852 0.08023 0.09502 |0.08023 0.20172 0.07290 |0.09502 0.07290 0.20417 |"
~ cmatrix="3.00 -0.59 -0.92 |-0.59 2.71 -0.35 |-0.92 -0.35 2.85 |"
~ cmatrix=false
~ Switch=False
~ Rg=0.01805
~ Xg=0.155081
~ rho=100
~ geometry=
~ units=NONE
~ spacing=
~ wires=
~ EarthModel=Deri
~ cncables=
~ tscables=
~ normamps=400
~ emergamps=600
~ faultrate=0.1
~ pctperm=20
~ repair=0
~ basefreq=60
~ enabled=true
~ like=

New Line.l27
! ENABLED
! NPhases = 2
! Nconds = 2
! Nterms = 2
! Yorder = 4
! NodeRef = "55 56 60 61 "
! Terminal Status: [C C C C ]
! Terminal Bus Ref: [32 32 34 34 ]

! YPrim (G matrix)
!    7.458671312 |
!   -2.842095763 |   7.653895002 |
!   -7.458671312 |   2.842095763 |   7.458671312 |
!    2.842095763 |  -7.653895002 |  -2.842095763 |   7.653895002 |
! YPrim (B Matrix) = 
!   -17.21461833 |
!    6.064393439 |  -17.31121401 |
!    17.21461846 |  -6.064393467 |  -17.21461833 |
!   -6.064393467 |   17.31121414 |   6.064393439 |  -17.31121401 |
~ bus1=26.1.3
~ bus2=27.1.3
~ linecode=7
~ length=0.275
~ phases=2
~ r1=0.05800
~ x1=0.12060
~ r0=0.17840
~ x0=0.40470
~ c1=3.40000
~ c0=1.60000
~ rmatrix="0.08667 0.02907 |0.02907 0.08741 |"
~ xmatrix="0.20417 0.07290 |0.07290 0.20172 |"
~ cmatrix="2.57 -0.53 |-0.53 2.60 |"
~ cmatrix=false
~ Switch=False
~ Rg=0.01805
~ Xg=0.155081
~ rho=100
~ geometry=
~ units=NONE
~ spacing=
~ wires=
~ EarthModel=Deri
~ cncables=
~ tscables=
~ normamps=400
~ emergamps=600
~ faultrate=0.1
~ pctperm=20
~ repair=0
~ basefreq=60
~ enabled=true
~ like=

New Line.l28
! ENABLED
! NPhases = 1
! Nconds = 1
! Nterms = 2
! Yorder = 2
! NodeRef = "56 62 "
! Terminal Status: [C C ]
! Terminal Bus Ref: [32 35 ]

! YPrim (G matrix)
!    8.706669041 |
!   -8.706669041 |   8.706669041 |
! YPrim (B Matrix) = 
!   -8.826539573 |
!    8.826539669 |  -8.826539573 |
~ bus1=26.3
~ bus2=31.3
~ linecode=11
~ length=0.225
~ phases=1
~ r1=0.05800
~ x1=0.12060
~ r0=0.05800
~ x0=0.12060
~ c1=3.40000
~ c0=3.40000
~ rmatrix="0.25174 |"
~ xmatrix="0.25521 |"
~ cmatrix="2.27 |"
~ cmatrix=false
~ Switch=False
~ Rg=0.01805
~ Xg=0.155081
~ rho=100
~ geometry=
~ units=NONE
~ spacing=
~ wires=
~ EarthModel=Deri
~ cncables=
~ tscables=
~ normamps=400
~ emergamps=600
~ faultrate=0.1
~ pctperm=20
~ repair=0
~ basefreq=60
~ enabled=true
~ like=

New Line.l29
! ENABLED
! NPhases = 1
! Nconds = 1
! Nterms = 2
! Yorder = 2
! NodeRef = "60 63 "
! Terminal Status: [C C ]
! Terminal Bus Ref: [34 36 ]

! YPrim (G matrix)
!    3.918001068 |
!   -3.918001068 |   3.918001068 |
! YPrim (B Matrix) = 
!   -3.971942637 |
!    3.971942851 |  -3.971942637 |
~ bus1=27.1
~ bus2=33.1
~ linecode=9
~ length=0.500
~ phases=1
~ r1=0.05800
~ x1=0.12060
~ r0=0.05800
~ x0=0.12060
~ c1=3.40000
~ c0=3.40000
~ rmatrix="0.25174 |"
~ xmatrix="0.25521 |"
~ cmatrix="2.27 |"
~ cmatrix=false
~ Switch=False
~ Rg=0.01805
~ Xg=0.155081
~ rho=100
~ geometry=
~ units=NONE
~ spacing=
~ wires=
~ EarthModel=Deri
~ cncables=
~ tscables=
~ normamps=400
~ emergamps=600
~ faultrate=0.1
~ pctperm=20
~ repair=0
~ basefreq=60
~ enabled=true
~ like=

New Line.l30
! ENABLED
! NPhases = 3
! Nconds = 3
! Nterms = 2
! Yorder = 6
! NodeRef = "57 58 59 64 65 66 "
! Terminal Status: [C C C C C C ]
! Terminal Bus Ref: [33 33 33 37 37 37 ]

! YPrim (G matrix)
!    9.576458189 |
!   -2.548090126 |    7.69397247 |
!   -4.159862773 |  -1.501090891 |   8.563960793 |
!   -9.576458189 |   2.548090126 |   4.159862773 |   9.576458189 |
!    2.548090126 |   -7.69397247 |   1.501090891 |  -2.548090126 |    7.69397247 |
!    4.159862773 |   1.501090891 |  -8.563960793 |  -4.159862773 |  -1.501090891 |   8.563960793 |
! YPrim (B Matrix) = 
!   -18.40154848 |
!    4.832635167 |  -17.13771797 |
!    6.095749555 |   3.959552977 |  -17.75765945 |
!    18.40154865 |    -4.8326352 |  -6.095749607 |  -18.40154848 |
!     -4.8326352 |   17.13771813 |  -3.959552997 |   4.832635167 |  -17.13771797 |
!   -6.095749607 |  -3.959552997 |   17.75765961 |   6.095749555 |   3.959552977 |  -17.75765945 |
~ bus1=28.1.2.3
~ bus2=29.1.2.3
~ linecode=2
~ length=0.300
~ phases=3
~ r1=0.05800
~ x1=0.12060
~ r0=0.17840
~ x0=0.40470
~ c1=3.40000
~ c0=1.60000
~ rmatrix="0.08837 0.02992 0.02955 |0.02992 0.08741 0.02907 |0.02955 0.02907 0.08667 |"
~ xmatrix="0.19852 0.08023 0.09502 |0.08023 0.20172 0.07290 |0.09502 0.07290 0.20417 |"
~ cmatrix="3.00 -0.59 -0.92 |-0.59 2.71 -0.35 |-0.92 -0.35 2.85 |"
~ cmatrix=false
~ Switch=False
~ Rg=0.01805
~ Xg=0.155081
~ rho=100
~ geometry=
~ units=NONE
~ spacing=
~ wires=
~ EarthModel=Deri
~ cncables=
~ tscables=
~ normamps=400
~ emergamps=600
~ faultrate=0.1
~ pctperm=20
~ repair=0
~ basefreq=60
~ enabled=true
~ like=

New Line.l31
! ENABLED
! NPhases = 3
! Nconds = 3
! Nterms = 2
! Yorder = 6
! NodeRef = "64 65 66 67 68 69 "
! Terminal Status: [C C C C C C ]
! Terminal Bus Ref: [37 37 37 38 38 38 ]

! YPrim (G matrix)
!    8.208392734 |
!   -2.184077251 |   6.594833545 |
!   -3.565596662 |  -1.286649335 |   7.340537823 |
!   -8.208392734 |   2.184077251 |   3.565596662 |   8.208392734 |
!    2.184077251 |  -6.594833545 |   1.286649335 |  -2.184077251 |   6.594833545 |
!    3.565596662 |   1.286649335 |  -7.340537823 |  -3.565596662 |  -1.286649335 |   7.340537823 |
! YPrim (B Matrix) = 
!   -15.77275579 |
!    4.142258705 |   -14.6894725 |
!    5.224928174 |   3.393902546 |  -15.22085091 |
!    15.77275599 |  -4.142258743 |  -5.224928235 |  -15.77275579 |
!   -4.142258743 |   14.68947268 |  -3.393902569 |   4.142258705 |   -14.6894725 |
!   -5.224928235 |  -3.393902569 |   15.22085109 |   5.224928174 |   3.393902546 |  -15.22085091 |
~ bus1=29.1.2.3
~ bus2=30.1.2.3
~ linecode=2
~ length=0.350
~ phases=3
~ r1=0.05800
~ x1=0.12060
~ r0=0.17840
~ x0=0.40470
~ c1=3.40000
~ c0=1.60000
~ rmatrix="0.08837 0.02992 0.02955 |0.02992 0.08741 0.02907 |0.02955 0.02907 0.08667 |"
~ xmatrix="0.19852 0.08023 0.09502 |0.08023 0.20172 0.07290 |0.09502 0.07290 0.20417 |"
~ cmatrix="3.00 -0.59 -0.92 |-0.59 2.71 -0.35 |-0.92 -0.35 2.85 |"
~ cmatrix=false
~ Switch=False
~ Rg=0.01805
~ Xg=0.155081
~ rho=100
~ geometry=
~ units=NONE
~ spacing=
~ wires=
~ EarthModel=Deri
~ cncables=
~ tscables=
~ normamps=400
~ emergamps=600
~ faultrate=0.1
~ pctperm=20
~ repair=0
~ basefreq=60
~ enabled=true
~ like=

New Line.l32
! ENABLED
! NPhases = 3
! Nconds = 3
! Nterms = 2
! Yorder = 6
! NodeRef = "67 68 69 70 71 72 "
! Terminal Status: [C C C C C C ]
! Terminal Bus Ref: [38 38 38 39 39 39 ]

! YPrim (G matrix)
!    14.36468728 |
!   -3.822135189 |    11.5409587 |
!   -6.239794159 |  -2.251636337 |   12.84594119 |
!   -14.36468728 |   3.822135189 |   6.239794159 |   14.36468728 |
!    3.822135189 |   -11.5409587 |   2.251636337 |  -3.822135189 |    11.5409587 |
!    6.239794159 |   2.251636337 |  -12.84594119 |  -6.239794159 |  -2.251636337 |   12.84594119 |
! YPrim (B Matrix) = 
!   -27.60232286 |
!    7.248952778 |  -25.70657709 |
!    9.143624376 |   5.939329483 |  -26.63648931 |
!    27.60232297 |    -7.2489528 |  -9.143624411 |  -27.60232286 |
!     -7.2489528 |   25.70657719 |  -5.939329496 |   7.248952778 |  -25.70657709 |
!   -9.143624411 |  -5.939329496 |   26.63648942 |   9.143624376 |   5.939329483 |  -26.63648931 |
~ bus1=30.1.2.3
~ bus2=250.1.2.3
~ linecode=2
~ length=0.200
~ phases=3
~ r1=0.05800
~ x1=0.12060
~ r0=0.17840
~ x0=0.40470
~ c1=3.40000
~ c0=1.60000
~ rmatrix="0.08837 0.02992 0.02955 |0.02992 0.08741 0.02907 |0.02955 0.02907 0.08667 |"
~ xmatrix="0.19852 0.08023 0.09502 |0.08023 0.20172 0.07290 |0.09502 0.07290 0.20417 |"
~ cmatrix="3.00 -0.59 -0.92 |-0.59 2.71 -0.35 |-0.92 -0.35 2.85 |"
~ cmatrix=false
~ Switch=False
~ Rg=0.01805
~ Xg=0.155081
~ rho=100
~ geometry=
~ units=NONE
~ spacing=
~ wires=
~ EarthModel=Deri
~ cncables=
~ tscables=
~ normamps=400
~ emergamps=600
~ faultrate=0.1
~ pctperm=20
~ repair=0
~ basefreq=60
~ enabled=true
~ like=

New Line.l33
! ENABLED
! NPhases = 1
! Nconds = 1
! Nterms = 2
! Yorder = 2
! NodeRef = "62 73 "
! Terminal Status: [C C ]
! Terminal Bus Ref: [35 40 ]

! YPrim (G matrix)
!    6.530001781 |
!   -6.530001781 |   6.530001781 |
! YPrim (B Matrix) = 
!   -6.619904624 |
!    6.619904752 |  -6.619904624 |
~ bus1=31.3
~ bus2=32.3
~ linecode=11
~ length=0.300
~ phases=1
~ r1=0.05800
~ x1=0.12060
~ r0=0.05800
~ x0=0.12060
~ c1=3.40000
~ c0=3.40000
~ rmatrix="0.25174 |"
~ xmatrix="0.25521 |"
~ cmatrix="2.27 |"
~ cmatrix=false
~ Switch=False
~ Rg=0.01805
~ Xg=0.155081
~ rho=100
~ geometry=
~ units=NONE
~ spacing=
~ wires=
~ EarthModel=Deri
~ cncables=
~ tscables=
~ normamps=400
~ emergamps=600
~ faultrate=0.1
~ pctperm=20
~ repair=0
~ basefreq=60
~ enabled=true
~ like=

New Line.l34
! ENABLED
! NPhases = 1
! Nconds = 1
! Nterms = 2
! Yorder = 2
! NodeRef = "31 37 "
! Terminal Status: [C C ]
! Terminal Bus Ref: [17 21 ]

! YPrim (G matrix)
!    19.59000534 |
!   -19.59000534 |   19.59000534 |
! YPrim (B Matrix) = 
!   -19.85971421 |
!    19.85971426 |  -19.85971421 |
~ bus1=34.3
~ bus2=15.3
~ linecode=11
~ length=0.100
~ phases=1
~ r1=0.05800
~ x1=0.12060
~ r0=0.05800
~ x0=0.12060
~ c1=3.40000
~ c0=3.40000
~ rmatrix="0.25174 |"
~ xmatrix="0.25521 |"
~ cmatrix="2.27 |"
~ cmatrix=false
~ Switch=False
~ Rg=0.01805
~ Xg=0.155081
~ rho=100
~ geometry=
~ units=NONE
~ spacing=
~ wires=
~ EarthModel=Deri
~ cncables=
~ tscables=
~ normamps=400
~ emergamps=600
~ faultrate=0.1
~ pctperm=20
~ repair=0
~ basefreq=60
~ enabled=true
~ like=

New Line.l35
! ENABLED
! NPhases = 2
! Nconds = 2
! Nterms = 2
! Yorder = 4
! NodeRef = "74 75 76 77 "
! Terminal Status: [C C C C ]
! Terminal Bus Ref: [41 41 42 42 ]

! YPrim (G matrix)
!    3.155591709 |
!   -1.202425131 |   3.238186347 |
!   -3.155591709 |   1.202425131 |   3.155591709 |
!    1.202425131 |  -3.238186347 |  -1.202425131 |   3.238186347 |
! YPrim (B Matrix) = 
!   -7.283107497 |
!    2.565704863 |  -7.323974897 |
!    7.283107812 |  -2.565704928 |  -7.283107497 |
!   -2.565704928 |   7.323975215 |   2.565704863 |  -7.323974897 |
~ bus1=35.1.2
~ bus2=36.1.2
~ linecode=8
~ length=0.650
~ phases=2
~ r1=0.05800
~ x1=0.12060
~ r0=0.17840
~ x0=0.40470
~ c1=3.40000
~ c0=1.60000
~ rmatrix="0.08667 0.02907 |0.02907 0.08741 |"
~ xmatrix="0.20417 0.07290 |0.07290 0.20172 |"
~ cmatrix="2.57 -0.53 |-0.53 2.60 |"
~ cmatrix=false
~ Switch=False
~ Rg=0.01805
~ Xg=0.155081
~ rho=100
~ geometry=
~ units=NONE
~ spacing=
~ wires=
~ EarthModel=Deri
~ cncables=
~ tscables=
~ normamps=400
~ emergamps=600
~ faultrate=0.1
~ pctperm=20
~ repair=0
~ basefreq=60
~ enabled=true
~ like=

New Line.l36
! ENABLED
! NPhases = 3
! Nconds = 3
! Nterms = 2
! Yorder = 6
! NodeRef = "74 75 78 79 80 81 "
! Terminal Status: [C C C C C C ]
! Terminal Bus Ref: [41 41 41 43 43 43 ]

! YPrim (G matrix)
!    10.27675298 |
!   -4.991835356 |   11.49174973 |
!   -1.801309111 |  -3.057707965 |   9.232766873 |
!   -10.27675298 |   4.991835356 |   1.801309111 |   10.27675298 |
!    4.991835356 |  -11.49174973 |   3.057707965 |  -4.991835356 |   11.49174973 |
!    1.801309111 |   3.057707965 |  -9.232766873 |  -1.801309111 |  -3.057707965 |   9.232766873 |
! YPrim (B Matrix) = 
!   -21.30919136 |
!    7.314899464 |  -22.08185837 |
!    4.751463507 |   5.799162451 |  -20.56526174 |
!     21.3091915 |  -7.314899507 |  -4.751463524 |  -21.30919136 |
!   -7.314899507 |   22.08185851 |  -5.799162478 |   7.314899464 |  -22.08185837 |
!   -4.751463524 |  -5.799162478 |   20.56526187 |   4.751463507 |   5.799162451 |  -20.56526174 |
~ bus1=35.1.2.3
~ bus2=40.1.2.3
~ linecode=1
~ length=0.250
~ phases=3
~ r1=0.05800
~ x1=0.12060
~ r0=0.17840
~ x0=0.40470
~ c1=3.40000
~ c0=1.60000
~ rmatrix="0.08667 0.02955 0.02907 |0.02955 0.08837 0.02992 |0.02907 0.02992 0.08741 |"
~ xmatrix="0.20417 0.09502 0.07290 |0.09502 0.19852 0.08023 |0.07290 0.08023 0.20172 |"
~ cmatrix="2.85 -0.92 -0.35 |-0.92 3.00 -0.59 |-0.35 -0.59 2.71 |"
~ cmatrix=false
~ Switch=False
~ Rg=0.01805
~ Xg=0.155081
~ rho=100
~ geometry=
~ units=NONE
~ spacing=
~ wires=
~ EarthModel=Deri
~ cncables=
~ tscables=
~ normamps=400
~ emergamps=600
~ faultrate=0.1
~ pctperm=20
~ repair=0
~ basefreq=60
~ enabled=true
~ like=

New Line.l37
! ENABLED
! NPhases = 1
! Nconds = 1
! Nterms = 2
! Yorder = 2
! NodeRef = "76 82 "
! Terminal Status: [C C ]
! Terminal Bus Ref: [42 44 ]

! YPrim (G matrix)
!    6.530001781 |
!   -6.530001781 |   6.530001781 |
! YPrim (B Matrix) = 
!   -6.619904624 |
!    6.619904752 |  -6.619904624 |
~ bus1=36.1
~ bus2=37.1
~ linecode=9
~ length=0.300
~ phases=1
~ r1=0.05800
~ x1=0.12060
~ r0=0.05800
~ x0=0.12060
~ c1=3.40000
~ c0=3.40000
~ rmatrix="0.25174 |"
~ xmatrix="0.25521 |"
~ cmatrix="2.27 |"
~ cmatrix=false
~ Switch=False
~ Rg=0.01805
~ Xg=0.155081
~ rho=100
~ geometry=
~ units=NONE
~ spacing=
~ wires=
~ EarthModel=Deri
~ cncables=
~ tscables=
~ normamps=400
~ emergamps=600
~ faultrate=0.1
~ pctperm=20
~ repair=0
~ basefreq=60
~ enabled=true
~ like=

New Line.l38
! ENABLED
! NPhases = 1
! Nconds = 1
! Nterms = 2
! Yorder = 2
! NodeRef = "77 83 "
! Terminal Status: [C C ]
! Terminal Bus Ref: [42 45 ]

! YPrim (G matrix)
!    7.836002137 |
!   -7.836002137 |   7.836002137 |
! YPrim (B Matrix) = 
!   -7.943885595 |
!    7.943885702 |  -7.943885595 |
~ bus1=36.2
~ bus2=38.2
~ linecode=10
~ length=0.250
~ phases=1
~ r1=0.05800
~ x1=0.12060
~ r0=0.05800
~ x0=0.12060
~ c1=3.40000
~ c0=3.40000
~ rmatrix="0.25174 |"
~ xmatrix="0.25521 |"
~ cmatrix="2.27 |"
~ cmatrix=false
~ Switch=False
~ Rg=0.01805
~ Xg=0.155081
~ rho=100
~ geometry=
~ units=NONE
~ spacing=
~ wires=
~ EarthModel=Deri
~ cncables=
~ tscables=
~ normamps=400
~ emergamps=600
~ faultrate=0.1
~ pctperm=20
~ repair=0
~ basefreq=60
~ enabled=true
~ like=

New Line.l39
! ENABLED
! NPhases = 1
! Nconds = 1
! Nterms = 2
! Yorder = 2
! NodeRef = "83 84 "
! Terminal Status: [C C ]
! Terminal Bus Ref: [45 46 ]

! YPrim (G matrix)
!    6.027693951 |
!   -6.027693951 |   6.027693951 |
! YPrim (B Matrix) = 
!    -6.11068117 |
!     6.11068131 |   -6.11068117 |
~ bus1=38.2
~ bus2=39.2
~ linecode=10
~ length=0.325
~ phases=1
~ r1=0.05800
~ x1=0.12060
~ r0=0.05800
~ x0=0.12060
~ c1=3.40000
~ c0=3.40000
~ rmatrix="0.25174 |"
~ xmatrix="0.25521 |"
~ cmatrix="2.27 |"
~ cmatrix=false
~ Switch=False
~ Rg=0.01805
~ Xg=0.155081
~ rho=100
~ geometry=
~ units=NONE
~ spacing=
~ wires=
~ EarthModel=Deri
~ cncables=
~ tscables=
~ normamps=400
~ emergamps=600
~ faultrate=0.1
~ pctperm=20
~ repair=0
~ basefreq=60
~ enabled=true
~ like=

New Line.l40
! ENABLED
! NPhases = 1
! Nconds = 1
! Nterms = 2
! Yorder = 2
! NodeRef = "81 85 "
! Terminal Status: [C C ]
! Terminal Bus Ref: [43 47 ]

! YPrim (G matrix)
!    6.027693951 |
!   -6.027693951 |   6.027693951 |
! YPrim (B Matrix) = 
!    -6.11068117 |
!     6.11068131 |   -6.11068117 |
~ bus1=40.3
~ bus2=41.3
~ linecode=11
~ length=0.325
~ phases=1
~ r1=0.05800
~ x1=0.12060
~ r0=0.05800
~ x0=0.12060
~ c1=3.40000
~ c0=3.40000
~ rmatrix="0.25174 |"
~ xmatrix="0.25521 |"
~ cmatrix="2.27 |"
~ cmatrix=false
~ Switch=False
~ Rg=0.01805
~ Xg=0.155081
~ rho=100
~ geometry=
~ units=NONE
~ spacing=
~ wires=
~ EarthModel=Deri
~ cncables=
~ tscables=
~ normamps=400
~ emergamps=600
~ faultrate=0.1
~ pctperm=20
~ repair=0
~ basefreq=60
~ enabled=true
~ like=

New Line.l41
! ENABLED
! NPhases = 3
! Nconds = 3
! Nterms = 2
! Yorder = 6
! NodeRef = "79 80 81 86 87 88 "
! Terminal Status: [C C C C C C ]
! Terminal Bus Ref: [43 43 43 48 48 48 ]

! YPrim (G matrix)
!    10.27675298 |
!   -4.991835356 |   11.49174973 |
!   -1.801309111 |  -3.057707965 |   9.232766873 |
!   -10.27675298 |   4.991835356 |   1.801309111 |   10.27675298 |
!    4.991835356 |  -11.49174973 |   3.057707965 |  -4.991835356 |   11.49174973 |
!    1.801309111 |   3.057707965 |  -9.232766873 |  -1.801309111 |  -3.057707965 |   9.232766873 |
! YPrim (B Matrix) = 
!   -21.30919136 |
!    7.314899464 |  -22.08185837 |
!    4.751463507 |   5.799162451 |  -20.56526174 |
!     21.3091915 |  -7.314899507 |  -4.751463524 |  -21.30919136 |
!   -7.314899507 |   22.08185851 |  -5.799162478 |   7.314899464 |  -22.08185837 |
!   -4.751463524 |  -5.799162478 |   20.56526187 |   4.751463507 |   5.799162451 |  -20.56526174 |
~ bus1=40.1.2.3
~ bus2=42.1.2.3
~ linecode=1
~ length=0.250
~ phases=3
~ r1=0.05800
~ x1=0.12060
~ r0=0.17840
~ x0=0.40470
~ c1=3.40000
~ c0=1.60000
~ rmatrix="0.08667 0.02955 0.02907 |0.02955 0.08837 0.02992 |0.02907 0.02992 0.08741 |"
~ xmatrix="0.20417 0.09502 0.07290 |0.09502 0.19852 0.08023 |0.07290 0.08023 0.20172 |"
~ cmatrix="2.85 -0.92 -0.35 |-0.92 3.00 -0.59 |-0.35 -0.59 2.71 |"
~ cmatrix=false
~ Switch=False
~ Rg=0.01805
~ Xg=0.155081
~ rho=100
~ geometry=
~ units=NONE
~ spacing=
~ wires=
~ EarthModel=Deri
~ cncables=
~ tscables=
~ normamps=400
~ emergamps=600
~ faultrate=0.1
~ pctperm=20
~ repair=0
~ basefreq=60
...